MastesRls/DataRaw/IEEE118.raw
0,   100.00
IEEE Test System, 118 Buses, 54 Generators          / PSS/E-30.0    
Created by College of Electrical Engineering, Zhejiang University, Mon 27 Jun 2011 14:39:13
      1,  ' bus-1   ',   1.0,    2,    0,      0,    1,   1,    0.955,  10.972,    1
      2,  ' bus-2   ',   1.0,    1,    0,      0,    1,   1,    0.971,  11.512,    1
      3,  ' bus-3   ',   1.0,    1,    0,      0,    1,   1,    0.967,  11.856,    1
      4,  ' bus-4   ',   1.0,    2,    0,      0,    1,   1,    0.998,  15.574,    1
      5,  ' bus-5   ',   1.0,    1,    0,  -40.0,    1,   1,    1.002,  16.019,    1
      6,  ' bus-6   ',   1.0,    2,    0,      0,    1,   1,    0.990,  13.291,    1
      7,  ' bus-7   ',   1.0,    1,    0,      0,    1,   1,    0.989,  12.847,    1
      8,  ' bus-8   ',   1.0,    2,    0,      0,    1,   1,    1.015,  21.040,    1
      9,  ' bus-9   ',   1.0,    1,    0,      0,    1,   1,    1.042,  28.294,    1
     10,  ' bus-10  ',   1.0,    2,    0,      0,    1,   1,    1.050,  35.875,    1
     11,  ' bus-11  ',   1.0,    1,    0,      0,    1,   1,    0.985,  13.005,    1
     12,  ' bus-12  ',   1.0,    2,    0,      0,    1,   1,    0.990,  12.488,    1
     13,  ' bus-13  ',   1.0,    1,    0,      0,    1,   1,    0.968,  11.629,    1
     14,  ' bus-14  ',   1.0,    1,    0,      0,    1,   1,    0.983,  11.771,    1
     15,  ' bus-15  ',   1.0,    2,    0,      0,    1,   1,    0.970,  11.474,    1
     16,  ' bus-16  ',   1.0,    1,    0,      0,    1,   1,    0.983,  12.187,    1
     17,  ' bus-17  ',   1.0,    1,    0,      0,    1,   1,    0.995,  13.995,    1
     18,  ' bus-18  ',   1.0,    2,    0,      0,    1,   1,    0.973,  11.780,    1
     19,  ' bus-19  ',   1.0,    2,    0,      0,    1,   1,    0.962,  11.314,    1
     20,  ' bus-20  ',   1.0,    1,    0,      0,    1,   1,    0.956,  12.191,    1
     21,  ' bus-21  ',   1.0,    1,    0,      0,    1,   1,    0.957,  13.778,    1
     22,  ' bus-22  ',   1.0,    1,    0,      0,    1,   1,    0.969,  16.331,    1
     23,  ' bus-23  ',   1.0,    1,    0,      0,    1,   1,    0.999,  21.248,    1
     24,  ' bus-24  ',   1.0,    2,    0,      0,    1,   1,    0.992,  21.113,    1
     25,  ' bus-25  ',   1.0,    2,    0,      0,    1,   1,    1.050,  28.179,    1
     26,  ' bus-26  ',   1.0,    2,    0,      0,    1,   1,    1.015,  29.960,    1
     27,  ' bus-27  ',   1.0,    2,    0,      0,    1,   1,    0.968,  15.604,    1
     28,  ' bus-28  ',   1.0,    1,    0,      0,    1,   1,    0.961,  13.878,    1
     29,  ' bus-29  ',   1.0,    1,    0,      0,    1,   1,    0.963,  12.885,    1
     30,  ' bus-30  ',   1.0,    1,    0,      0,    1,   1,    0.985,  19.033,    1
     31,  ' bus-31  ',   1.0,    2,    0,      0,    1,   1,    0.967,  13.001,    1
     32,  ' bus-32  ',   1.0,    2,    0,      0,    1,   1,    0.963,  15.060,    1
     33,  ' bus-33  ',   1.0,    1,    0,      0,    1,   1,    0.970,  10.853,    1
     34,  ' bus-34  ',   1.0,    2,    0,   14.0,    1,   1,    0.984,  11.511,    1
     35,  ' bus-35  ',   1.0,    1,    0,      0,    1,   1,    0.980,  11.055,    1
     36,  ' bus-36  ',   1.0,    2,    0,      0,    1,   1,    0.980,  11.055,    1
     37,  ' bus-37  ',   1.0,    1,    0,  -25.0,    1,   1,    0.990,  11.966,    1
     38,  ' bus-38  ',   1.0,    1,    0,      0,    1,   1,    0.961,  17.107,    1
     39,  ' bus-39  ',   1.0,    1,    0,      0,    1,   1,    0.970,  8.5766,    1
     40,  ' bus-40  ',   1.0,    2,    0,      0,    1,   1,    0.970,  7.4955,    1
     41,  ' bus-41  ',   1.0,    1,    0,      0,    1,   1,    0.966,  7.0516,    1
     42,  ' bus-42  ',   1.0,    2,    0,      0,    1,   1,    0.985,  8.6529,    1
     43,  ' bus-43  ',   1.0,    1,    0,      0,    1,   1,    0.977,  11.460,    1
     44,  ' bus-44  ',   1.0,    1,    0,   10.0,    1,   1,    0.984,  13.943,    1
     45,  ' bus-45  ',   1.0,    1,    0,   10.0,    1,   1,    0.986,  15.772,    1
     46,  ' bus-46  ',   1.0,    2,    0,   10.0,    1,   1,    1.005,  18.575,    1
     47,  ' bus-47  ',   1.0,    1,    0,      0,    1,   1,    1.017,  20.799,    1
     48,  ' bus-48  ',   1.0,    1,    0,   15.0,    1,   1,    1.020,  20.018,    1
     49,  ' bus-49  ',   1.0,    2,    0,      0,    1,   1,    1.025,  21.021,    1
     50,  ' bus-50  ',   1.0,    1,    0,      0,    1,   1,    1.001,  18.982,    1
     51,  ' bus-51  ',   1.0,    1,    0,      0,    1,   1,    0.966,  16.364,    1
     52,  ' bus-52  ',   1.0,    1,    0,      0,    1,   1,    0.956,  15.410,    1
     53,  ' bus-53  ',   1.0,    1,    0,      0,    1,   1,    0.946,  14.436,    1
     54,  ' bus-54  ',   1.0,    2,    0,      0,    1,   1,    0.955,  15.348,    1
     55,  ' bus-55  ',   1.0,    2,    0,      0,    1,   1,    0.952,  15.058,    1
     56,  ' bus-56  ',   1.0,    2,    0,      0,    1,   1,    0.954,  15.244,    1
     57,  ' bus-57  ',   1.0,    1,    0,      0,    1,   1,    0.970,  16.449,    1
     58,  ' bus-58  ',   1.0,    1,    0,      0,    1,   1,    0.959,  15.592,    1
     59,  ' bus-59  ',   1.0,    2,    0,      0,    1,   1,    0.985,  19.448,    1
     60,  ' bus-60  ',   1.0,    1,    0,      0,    1,   1,    0.993,  23.230,    1
     61,  ' bus-61  ',   1.0,    2,    0,      0,    1,   1,    0.995,  24.121,    1
     62,  ' bus-62  ',   1.0,    2,    0,      0,    1,   1,    0.998,  23.504,    1
     63,  ' bus-63  ',   1.0,    1,    0,      0,    1,   1,    0.968,  22.827,    1
     64,  ' bus-64  ',   1.0,    1,    0,      0,    1,   1,    0.983,  24.593,    1
     65,  ' bus-65  ',   1.0,    2,    0,      0,    1,   1,    1.005,  27.719,    1
     66,  ' bus-66  ',   1.0,    2,    0,      0,    1,   1,    1.050,  27.558,    1
     67,  ' bus-67  ',   1.0,    1,    0,      0,    1,   1,    1.019,  24.919,    1
     68,  ' bus-68  ',   1.0,    1,    0,      0,    1,   1,    1.003,  27.597,    1
     69,  ' bus-69  ',   1.0,    3,    0,      0,    1,   1,    1.035,  30.000,    1
     70,  ' bus-70  ',   1.0,    2,    0,      0,    1,   1,    0.984,  22.617,    1
     71,  ' bus-71  ',   1.0,    1,    0,      0,    1,   1,    0.986,  22.206,    1
     72,  ' bus-72  ',   1.0,    2,    0,      0,    1,   1,    0.980,  21.108,    1
     73,  ' bus-73  ',   1.0,    2,    0,      0,    1,   1,    0.991,  21.995,    1
     74,  ' bus-74  ',   1.0,    2,    0,   12.0,    1,   1,    0.958,  21.668,    1
     75,  ' bus-75  ',   1.0,    1,    0,      0,    1,   1,    0.967,  22.930,    1
     76,  ' bus-76  ',   1.0,    2,    0,      0,    1,   1,    0.943,  21.798,    1
     77,  ' bus-77  ',   1.0,    2,    0,      0,    1,   1,    1.006,  26.750,    1
     78,  ' bus-78  ',   1.0,    1,    0,      0,    1,   1,    1.003,  26.446,    1
     79,  ' bus-79  ',   1.0,    1,    0,   20.0,    1,   1,    1.009,  26.745,    1
     80,  ' bus-80  ',   1.0,    2,    0,      0,    1,   1,    1.040,  28.990,    1
     81,  ' bus-81  ',   1.0,    1,    0,      0,    1,   1,    0.996,  28.144,    1
     82,  ' bus-82  ',   1.0,    1,    0,   20.0,    1,   1,    0.988,  27.271,    1
     83,  ' bus-83  ',   1.0,    1,    0,   10.0,    1,   1,    0.984,  28.464,    1
     84,  ' bus-84  ',   1.0,    1,    0,      0,    1,   1,    0.979,  31.000,    1
     85,  ' bus-85  ',   1.0,    2,    0,      0,    1,   1,    0.985,  32.555,    1
     86,  ' bus-86  ',   1.0,    1,    0,      0,    1,   1,    0.986,  31.186,    1
     87,  ' bus-87  ',   1.0,    2,    0,      0,    1,   1,    1.015,  31.445,    1
     88,  ' bus-88  ',   1.0,    1,    0,      0,    1,   1,    0.987,  35.690,    1
     89,  ' bus-89  ',   1.0,    2,    0,      0,    1,   1,    1.005,  39.748,    1
     90,  ' bus-90  ',   1.0,    2,    0,      0,    1,   1,    0.985,  33.338,    1
     91,  ' bus-91  ',   1.0,    2,    0,      0,    1,   1,    0.980,  33.350,    1
     92,  ' bus-92  ',   1.0,    2,    0,      0,    1,   1,    0.990,  33.880,    1
     93,  ' bus-93  ',   1.0,    1,    0,      0,    1,   1,    0.985,  30.849,    1
     94,  ' bus-94  ',   1.0,    1,    0,      0,    1,   1,    0.989,  28.682,    1
     95,  ' bus-95  ',   1.0,    1,    0,      0,    1,   1,    0.980,  27.709,    1
     96,  ' bus-96  ',   1.0,    1,    0,      0,    1,   1,    0.992,  27.542,    1
     97,  ' bus-97  ',   1.0,    1,    0,      0,    1,   1,    1.011,  27.915,    1
     98,  ' bus-98  ',   1.0,    1,    0,      0,    1,   1,    1.023,  27.433,    1
     99,  ' bus-99  ',   1.0,    2,    0,      0,    1,   1,    1.010,  27.066,    1
    100,  ' bus-100 ',   1.0,    2,    0,      0,    1,   1,    1.017,  28.058,    1
    101,  ' bus-101 ',   1.0,    1,    0,      0,    1,   1,    0.991,  29.646,    1
    102,  ' bus-102 ',   1.0,    1,    0,      0,    1,   1,    0.989,  32.365,    1
    103,  ' bus-103 ',   1.0,    2,    0,      0,    1,   1,    1.010,  24.317,    1
    104,  ' bus-104 ',   1.0,    2,    0,      0,    1,   1,    0.971,  21.747,    1
    105,  ' bus-105 ',   1.0,    2,    0,   20.0,    1,   1,    0.965,  20.643,    1
    106,  ' bus-106 ',   1.0,    1,    0,      0,    1,   1,    0.961,  20.383,    1
    107,  ' bus-107 ',   1.0,    2,    0,      6,    1,   1,    0.952,  17.582,    1
    108,  ' bus-108 ',   1.0,    1,    0,      0,    1,   1,    0.966,  19.443,    1
    109,  ' bus-109 ',   1.0,    1,    0,      0,    1,   1,    0.967,  18.990,    1
    110,  ' bus-110 ',   1.0,    2,    0,      6,    1,   1,    0.973,  18.144,    1
    111,  ' bus-111 ',   1.0,    2,    0,      0,    1,   1,    0.980,  19.789,    1
    112,  ' bus-112 ',   1.0,    2,    0,      0,    1,   1,    0.975,  15.044,    1
    113,  ' bus-113 ',   1.0,    2,    0,      0,    1,   1,    0.993,  13.992,    1
    114,  ' bus-114 ',   1.0,    1,    0,      0,    1,   1,    0.960,  14.726,    1
    115,  ' bus-115 ',   1.0,    1,    0,      0,    1,   1,    0.960,  14.718,    1
    116,  ' bus-116 ',   1.0,    2,    0,      0,    1,   1,    1.005,  27.162,    1
    117,  ' bus-117 ',   1.0,    1,    0,      0,    1,   1,    0.973,  10.947,    1
    118,  ' bus-118 ',   1.0,    1,    0,      0,    1,   1,    0.949,  21.941,    1
0 / END OF BUS DATA, BEGIN LOAD DATA
      1,  '1',    1,    1,    1,    51.0,     27.0,    0,    0,    0,    0,    1
      2,  '1',    1,    1,    1,    20.0,      9.0,    0,    0,    0,    0,    1
      3,  '1',    1,    1,    1,    39.0,     10.0,    0,    0,    0,    0,    1
      4,  '1',    1,    1,    1,    30.0,     12.0,    0,    0,    0,    0,    1
      6,  '1',    1,    1,    1,    52.0,     22.0,    0,    0,    0,    0,    1
      7,  '1',    1,    1,    1,    19.0,      2.0,    0,    0,    0,    0,    1
     11,  '1',    1,    1,    1,    70.0,     23.0,    0,    0,    0,    0,    1
     12,  '1',    1,    1,    1,    47.0,     10.0,    0,    0,    0,    0,    1
     13,  '1',    1,    1,    1,    34.0,     16.0,    0,    0,    0,    0,    1
     14,  '1',    1,    1,    1,    14.0,      1.0,    0,    0,    0,    0,    1
     15,  '1',    1,    1,    1,    90.0,     30.0,    0,    0,    0,    0,    1
     16,  '1',    1,    1,    1,    25.0,     10.0,    0,    0,    0,    0,    1
     17,  '1',    1,    1,    1,    11.0,      3.0,    0,    0,    0,    0,    1
     18,  '1',    1,    1,    1,    60.0,     34.0,    0,    0,    0,    0,    1
     19,  '1',    1,    1,    1,    45.0,     25.0,    0,    0,    0,    0,    1
     20,  '1',    1,    1,    1,    18.0,      3.0,    0,    0,    0,    0,    1
     21,  '1',    1,    1,    1,    14.0,      8.0,    0,    0,    0,    0,    1
     22,  '1',    1,    1,    1,    10.0,      5.0,    0,    0,    0,    0,    1
     23,  '1',    1,    1,    1,     7.0,      3.0,    0,    0,    0,    0,    1
     27,  '1',    1,    1,    1,    62.0,     13.0,    0,    0,    0,    0,    1
     28,  '1',    1,    1,    1,    17.0,      7.0,    0,    0,    0,    0,    1
     29,  '1',    1,    1,    1,    24.0,      4.0,    0,    0,    0,    0,    1
     31,  '1',    1,    1,    1,    43.0,     27.0,    0,    0,    0,    0,    1
     32,  '1',    1,    1,    1,    59.0,     23.0,    0,    0,    0,    0,    1
     33,  '1',    1,    1,    1,    23.0,      9.0,    0,    0,    0,    0,    1
     34,  '1',    1,    1,    1,    59.0,     26.0,    0,    0,    0,    0,    1
     35,  '1',    1,    1,    1,    33.0,      9.0,    0,    0,    0,    0,    1
     36,  '1',    1,    1,    1,    31.0,     17.0,    0,    0,    0,    0,    1
     39,  '1',    1,    1,    1,    27.0,     11.0,    0,    0,    0,    0,    1
     40,  '1',    1,    1,    1,    20.0,     23.0,    0,    0,    0,    0,    1
     41,  '1',    1,    1,    1,    37.0,     10.0,    0,    0,    0,    0,    1
     42,  '1',    1,    1,    1,    37.0,     23.0,    0,    0,    0,    0,    1
     43,  '1',    1,    1,    1,    18.0,      7.0,    0,    0,    0,    0,    1
     44,  '1',    1,    1,    1,    16.0,      8.0,    0,    0,    0,    0,    1
     45,  '1',    1,    1,    1,    53.0,     22.0,    0,    0,    0,    0,    1
     46,  '1',    1,    1,    1,    28.0,     10.0,    0,    0,    0,    0,    1
     47,  '1',    1,    1,    1,    34.0,      0.0,    0,    0,    0,    0,    1
     48,  '1',    1,    1,    1,    20.0,     11.0,    0,    0,    0,    0,    1
     49,  '1',    1,    1,    1,    87.0,     30.0,    0,    0,    0,    0,    1
     50,  '1',    1,    1,    1,    17.0,      4.0,    0,    0,    0,    0,    1
     51,  '1',    1,    1,    1,    17.0,      8.0,    0,    0,    0,    0,    1
     52,  '1',    1,    1,    1,    18.0,      5.0,    0,    0,    0,    0,    1
     53,  '1',    1,    1,    1,    23.0,     11.0,    0,    0,    0,    0,    1
     54,  '1',    1,    1,    1,   113.0,     32.0,    0,    0,    0,    0,    1
     55,  '1',    1,    1,    1,    63.0,     22.0,    0,    0,    0,    0,    1
     56,  '1',    1,    1,    1,    84.0,     18.0,    0,    0,    0,    0,    1
     57,  '1',    1,    1,    1,    12.0,      3.0,    0,    0,    0,    0,    1
     58,  '1',    1,    1,    1,    12.0,      3.0,    0,    0,    0,    0,    1
     59,  '1',    1,    1,    1,   277.0,    113.0,    0,    0,    0,    0,    1
     60,  '1',    1,    1,    1,    78.0,      3.0,    0,    0,    0,    0,    1
     62,  '1',    1,    1,    1,    77.0,     14.0,    0,    0,    0,    0,    1
     66,  '1',    1,    1,    1,    39.0,     18.0,    0,    0,    0,    0,    1
     67,  '1',    1,    1,    1,    28.0,      7.0,    0,    0,    0,    0,    1
     70,  '1',    1,    1,    1,    66.0,     20.0,    0,    0,    0,    0,    1
     74,  '1',    1,    1,    1,    68.0,     27.0,    0,    0,    0,    0,    1
     75,  '1',    1,    1,    1,    47.0,     11.0,    0,    0,    0,    0,    1
     76,  '1',    1,    1,    1,    68.0,     36.0,    0,    0,    0,    0,    1
     77,  '1',    1,    1,    1,    61.0,     28.0,    0,    0,    0,    0,    1
     78,  '1',    1,    1,    1,    71.0,     26.0,    0,    0,    0,    0,    1
     79,  '1',    1,    1,    1,    39.0,     32.0,    0,    0,    0,    0,    1
     80,  '1',    1,    1,    1,   130.0,     26.0,    0,    0,    0,    0,    1
     82,  '1',    1,    1,    1,    54.0,     27.0,    0,    0,    0,    0,    1
     83,  '1',    1,    1,    1,    20.0,     10.0,    0,    0,    0,    0,    1
     84,  '1',    1,    1,    1,    11.0,      7.0,    0,    0,    0,    0,    1
     85,  '1',    1,    1,    1,    24.0,     15.0,    0,    0,    0,    0,    1
     86,  '1',    1,    1,    1,    21.0,     10.0,    0,    0,    0,    0,    1
     88,  '1',    1,    1,    1,    48.0,     10.0,    0,    0,    0,    0,    1
     90,  '1',    1,    1,    1,    78.0,     42.0,    0,    0,    0,    0,    1
     92,  '1',    1,    1,    1,    65.0,     10.0,    0,    0,    0,    0,    1
     93,  '1',    1,    1,    1,    12.0,      7.0,    0,    0,    0,    0,    1
     94,  '1',    1,    1,    1,    30.0,     16.0,    0,    0,    0,    0,    1
     95,  '1',    1,    1,    1,    42.0,     31.0,    0,    0,    0,    0,    1
     96,  '1',    1,    1,    1,    38.0,     15.0,    0,    0,    0,    0,    1
     97,  '1',    1,    1,    1,    15.0,      9.0,    0,    0,    0,    0,    1
     98,  '1',    1,    1,    1,    34.0,      8.0,    0,    0,    0,    0,    1
    100,  '1',    1,    1,    1,    37.0,     18.0,    0,    0,    0,    0,    1
    101,  '1',    1,    1,    1,    22.0,     15.0,    0,    0,    0,    0,    1
    102,  '1',    1,    1,    1,     5.0,      3.0,    0,    0,    0,    0,    1
    103,  '1',    1,    1,    1,    23.0,     16.0,    0,    0,    0,    0,    1
    104,  '1',    1,    1,    1,    38.0,     25.0,    0,    0,    0,    0,    1
    105,  '1',    1,    1,    1,    31.0,     26.0,    0,    0,    0,    0,    1
    106,  '1',    1,    1,    1,    43.0,     16.0,    0,    0,    0,    0,    1
    107,  '1',    1,    1,    1,    28.0,     12.0,    0,    0,    0,    0,    1
    108,  '1',    1,    1,    1,     2.0,      1.0,    0,    0,    0,    0,    1
    109,  '1',    1,    1,    1,     8.0,      3.0,    0,    0,    0,    0,    1
    110,  '1',    1,    1,    1,    39.0,     30.0,    0,    0,    0,    0,    1
    112,  '1',    1,    1,    1,    25.0,     13.0,    0,    0,    0,    0,    1
    114,  '1',    1,    1,    1,     8.0,      3.0,    0,    0,    0,    0,    1
    115,  '1',    1,    1,    1,    22.0,      7.0,    0,    0,    0,    0,    1
    117,  '1',    1,    1,    1,    20.0,      8.0,    0,    0,    0,    0,    1
    118,  '1',    1,    1,    1,    33.0,     15.0,    0,    0,    0,    0,    1
0 / END OF LOAD DATA, BEGIN GENERATOR DATA
      1,  '1',      0.00,    -3.10409,      45,     -5,    0.955,    0,    100,    0,    1,    0,    0,    1,    1,    100,    9999,    -9999,    1,    1
      4,  '1',     -9.00,    -15.0096,     300,   -300,    0.998,    0,    100,    0,    1,    0,    0,    1,    1,    100,    9999,    -9999,    1,    1
      6,  '1',      0.00,     15.9298,      50,    -13,    0.990,    0,    100,    0,    1,    0,    0,    1,    1,    100,    9999,    -9999,    1,    1
      8,  '1',    -28.00,     63.1384,     300,   -300,    1.015,    0,    100,    0,    1,    0,    0,    1,    1,    100,    9999,    -9999,    1,    1
     10,  '1',    450.00,    -51.0421,     200,   -147,    1.050,    0,    100,    0,    1,    0,    0,    1,    1,    100,    9999,    -9999,    1,    1
     12,  '1',     85.00,     91.2917,     120,    -35,    0.990,    0,    100,    0,    1,    0,    0,    1,    1,    100,    9999,    -9999,    1,    1
     15,  '1',      0.00,     7.16045,      30,    -10,    0.970,    0,    100,    0,    1,    0,    0,    1,    1,    100,    9999,    -9999,    1,    1
     18,  '1',      0.00,     28.4263,      50,    -16,    0.973,    0,    100,    0,    1,    0,    0,    1,    1,    100,    9999,    -9999,    1,    1
     19,  '1',      0.00,    -14.2741,      24,     -8,    0.962,    0,    100,    0,    1,    0,    0,    1,    1,    100,    9999,    -9999,    1,    1
     24,  '1',    -13.00,    -14.9076,     300,   -300,    0.992,    0,    100,    0,    1,    0,    0,    1,    1,    100,    9999,    -9999,    1,    1
     25,  '1',    220.00,     50.0433,     140,    -47,    1.050,    0,    100,    0,    1,    0,    0,    1,    1,    100,    9999,    -9999,    1,    1
     26,  '1',    314.00,     10.1247,    1000,  -1000,    1.015,    0,    100,    0,    1,    0,    0,    1,    1,    100,    9999,    -9999,    1,    1
     27,  '1',     -9.00,     3.98235,     300,   -300,    0.968,    0,    100,    0,    1,    0,    0,    1,    1,    100,    9999,    -9999,    1,    1
     31,  '1',      7.00,     32.5860,     300,   -300,    0.967,    0,    100,    0,    1,    0,    0,    1,    1,    100,    9999,    -9999,    1,    1
     32,  '1',      0.00,    -16.2847,      42,    -14,    0.963,    0,    100,    0,    1,    0,    0,    1,    1,    100,    9999,    -9999,    1,    1
     34,  '1',      0.00,    -20.8271,      24,     -8,    0.984,    0,    100,    0,    1,    0,    0,    1,    1,    100,    9999,    -9999,    1,    1
     36,  '1',      0.00,     7.72508,      24,     -8,    0.980,    0,    100,    0,    1,    0,    0,    1,    1,    100,    9999,    -9999,    1,    1
     40,  '1',    -46.00,     28.4541,     300,   -300,    0.970,    0,    100,    0,    1,    0,    0,    1,    1,    100,    9999,    -9999,    1,    1
     42,  '1',    -59.00,     41.0296,     300,   -300,    0.985,    0,    100,    0,    1,    0,    0,    1,    1,    100,    9999,    -9999,    1,    1
     46,  '1',     19.00,    -5.02945,     100,   -100,    1.005,    0,    100,    0,    1,    0,    0,    1,    1,    100,    9999,    -9999,    1,    1
     49,  '1',    204.00,     115.845,     210,    -85,    1.025,    0,    100,    0,    1,    0,    0,    1,    1,    100,    9999,    -9999,    1,    1
     54,  '1',     48.00,     3.90106,     300,   -300,    0.955,    0,    100,    0,    1,    0,    0,    1,    1,    100,    9999,    -9999,    1,    1
     55,  '1',      0.00,     4.66417,      23,     -8,    0.952,    0,    100,    0,    1,    0,    0,    1,    1,    100,    9999,    -9999,    1,    1
     56,  '1',      0.00,    -2.28574,      15,     -8,    0.954,    0,    100,    0,    1,    0,    0,    1,    1,    100,    9999,    -9999,    1,    1
     59,  '1',    155.00,     76.8340,     180,    -60,    0.985,    0,    100,    0,    1,    0,    0,    1,    1,    100,    9999,    -9999,    1,    1
     61,  '1',    160.00,     -40.394,     300,   -100,    0.995,    0,    100,    0,    1,    0,    0,    1,    1,    100,    9999,    -9999,    1,    1
     62,  '1',      0.00,     1.25837,      20,    -20,    0.998,    0,    100,    0,    1,    0,    0,    1,    1,    100,    9999,    -9999,    1,    1
     65,  '1',    391.00,     81.5101,     200,    -67,    1.005,    0,    100,    0,    1,    0,    0,    1,    1,    100,    9999,    -9999,    1,    1
     66,  '1',    392.00,    -1.95658,     200,    -67,    1.050,    0,    100,    0,    1,    0,    0,    1,    1,    100,    9999,    -9999,    1,    1
     69,  '1',    513.86,    -82.4240,     300,   -300,    1.035,    0,    100,    0,    1,    0,    0,    1,    1,    100,    9999,    -9999,    1,    1
     70,  '1',      0.00,     9.66929,      32,    -10,    0.984,    0,    100,    0,    1,    0,    0,    1,    1,    100,    9999,    -9999,    1,    1
     72,  '1',    -12.00,    -11.1300,     100,   -100,    0.980,    0,    100,    0,    1,    0,    0,    1,    1,    100,    9999,    -9999,    1,    1
     73,  '1',     -6.00,     9.65137,     100,   -100,    0.991,    0,    100,    0,    1,    0,    0,    1,    1,    100,    9999,    -9999,    1,    1
     74,  '1',      0.00,    -5.62520,       9,     -6,    0.958,    0,    100,    0,    1,    0,    0,    1,    1,    100,    9999,    -9999,    1,    1
     76,  '1',      0.00,     5.26810,      23,     -8,    0.943,    0,    100,    0,    1,    0,    0,    1,    1,    100,    9999,    -9999,    1,    1
     77,  '1',      0.00,    12.17040,      70,    -20,    1.006,    0,    100,    0,    1,    0,    0,    1,    1,    100,    9999,    -9999,    1,    1
     80,  '1',    477.00,    105.4660,     280,   -165,    1.040,    0,    100,    0,    1,    0,    0,    1,    1,    100,    9999,    -9999,    1,    1
     85,  '1',      0.00,    -5.60658,      23,     -8,    0.985,    0,    100,    0,    1,    0,    0,    1,    1,    100,    9999,    -9999,    1,    1
     87,  '1',      4.00,    11.02160,    1000,   -100,    1.015,    0,    100,    0,    1,    0,    0,    1,    1,    100,    9999,    -9999,    1,    1
     89,  '1',    607.00,    -5.90495,     300,   -210,    1.005,    0,    100,    0,    1,    0,    0,    1,    1,    100,    9999,    -9999,    1,    1
     90,  '1',    -85.00,     59.3084,     300,   -300,    0.985,    0,    100,    0,    1,    0,    0,    1,    1,    100,    9999,    -9999,    1,    1
     91,  '1',    -10.00,    -13.0880,     100,   -100,    0.980,    0,    100,    0,    1,    0,    0,    1,    1,    100,    9999,    -9999,    1,    1
     92,  '1',      0.00,    -13.9562,       9,     -3,    0.990,    0,    100,    0,    1,    0,    0,    1,    1,    100,    9999,    -9999,    1,    1
     99,  '1',    -42.00,    -17.5355,     100,   -100,    1.010,    0,    100,    0,    1,    0,    0,    1,    1,    100,    9999,    -9999,    1,    1
    100,  '1',    252.00,    95.55210,     155,    -50,    1.017,    0,    100,    0,    1,    0,    0,    1,    1,    100,    9999,    -9999,    1,    1
    103,  '1',     40.00,     75.4224,      40,    -15,    1.010,    0,    100,    0,    1,    0,    0,    1,    1,    100,    9999,    -9999,    1,    1
    104,  '1',      0.00,     2.38825,      23,     -8,    0.971,    0,    100,    0,    1,    0,    0,    1,    1,    100,    9999,    -9999,    1,    1
    105,  '1',      0.00,    -18.3345,      23,     -8,    0.965,    0,    100,    0,    1,    0,    0,    1,    1,    100,    9999,    -9999,    1,    1
    107,  '1',    -22.00,     6.55782,     200,   -200,    0.952,    0,    100,    0,    1,    0,    0,    1,    1,    100,    9999,    -9999,    1,    1
    110,  '1',      0.00,    0.280833,      23,     -8,    0.973,    0,    100,    0,    1,    0,    0,    1,    1,    100,    9999,    -9999,    1,    1
    111,  '1',     36.00,    -1.84382,    1000,   -100,    0.980,    0,    100,    0,    1,    0,    0,    1,    1,    100,    9999,    -9999,    1,    1
    112,  '1',    -43.00,     41.5117,    1000,   -100,    0.975,    0,    100,    0,    1,    0,    0,    1,    1,    100,    9999,    -9999,    1,    1
    113,  '1',     -6.00,     6.75263,     200,   -100,    0.993,    0,    100,    0,    1,    0,    0,    1,    1,    100,    9999,    -9999,    1,    1
    116,  '1',   -184.00,     51.3225,    1000,  -1000,    1.005,    0,    100,    0,    1,    0,    0,    1,    1,    100,    9999,    -9999,    1,    1
0 / END OF GENERATOR DATA, BEGIN BRANCH DATA
      2,      1,  '1',      0.03030,      0.09990,      0.02540,    0,    0,    0,    0,    0,    0,    0,    1,    0,    1,    1
      3,      1,  '1',      0.01290,      0.04240,      0.01082,    0,    0,    0,    0,    0,    0,    0,    1,    0,    1,    1
      5,      4,  '1',      0.00176,      0.00798,      0.00210,    0,    0,    0,    0,    0,    0,    0,    1,    0,    1,    1
      5,      3,  '1',      0.02410,      0.10800,      0.02840,    0,    0,    0,    0,    0,    0,    0,    1,    0,    1,    1
      6,      5,  '1',      0.01190,      0.05400,      0.01426,    0,    0,    0,    0,    0,    0,    0,    1,    0,    1,    1
      7,      6,  '1',      0.00459,      0.02080,      0.00550,    0,    0,    0,    0,    0,    0,    0,    1,    0,    1,    1
      9,      8,  '1',      0.00244,      0.03050,      1.16200,    0,    0,    0,    0,    0,    0,    0,    1,    0,    1,    1
     10,      9,  '1',      0.00258,      0.03220,      1.23000,    0,    0,    0,    0,    0,    0,    0,    1,    0,    1,    1
     11,      4,  '1',      0.02090,      0.06880,      0.01748,    0,    0,    0,    0,    0,    0,    0,    1,    0,    1,    1
     11,      5,  '1',      0.02030,      0.06820,      0.01738,    0,    0,    0,    0,    0,    0,    0,    1,    0,    1,    1
     12,     11,  '1',      0.00595,      0.01960,      0.00502,    0,    0,    0,    0,    0,    0,    0,    1,    0,    1,    1
     12,      2,  '1',      0.01870,      0.06160,      0.01572,    0,    0,    0,    0,    0,    0,    0,    1,    0,    1,    1
     12,      3,  '1',      0.04840,      0.16000,      0.04060,    0,    0,    0,    0,    0,    0,    0,    1,    0,    1,    1
     12,      7,  '1',      0.00862,      0.03400,      0.00874,    0,    0,    0,    0,    0,    0,    0,    1,    0,    1,    1
     13,     11,  '1',      0.02225,      0.07310,      0.01876,    0,    0,    0,    0,    0,    0,    0,    1,    0,    1,    1
     14,     12,  '1',      0.02150,      0.07070,      0.01816,    0,    0,    0,    0,    0,    0,    0,    1,    0,    1,    1
     15,     13,  '1',      0.07440,      0.24440,      0.06268,    0,    0,    0,    0,    0,    0,    0,    1,    0,    1,    1
     15,     14,  '1',      0.05950,      0.19500,      0.05020,    0,    0,    0,    0,    0,    0,    0,    1,    0,    1,    1
     16,     12,  '1',      0.02120,      0.08340,      0.02140,    0,    0,    0,    0,    0,    0,    0,    1,    0,    1,    1
     17,     15,  '1',      0.01320,      0.04370,      0.04440,    0,    0,    0,    0,    0,    0,    0,    1,    0,    1,    1
     17,     16,  '1',      0.04540,      0.18010,      0.04660,    0,    0,    0,    0,    0,    0,    0,    1,    0,    1,    1
     18,     17,  '1',      0.01230,      0.05050,      0.01298,    0,    0,    0,    0,    0,    0,    0,    1,    0,    1,    1
     19,     18,  '1',      0.01119,      0.04930,      0.01142,    0,    0,    0,    0,    0,    0,    0,    1,    0,    1,    1
     20,     19,  '1',      0.02520,      0.11700,      0.02980,    0,    0,    0,    0,    0,    0,    0,    1,    0,    1,    1
     19,     15,  '1',      0.01200,      0.03940,      0.01010,    0,    0,    0,    0,    0,    0,    0,    1,    0,    1,    1
     21,     20,  '1',      0.01830,      0.08490,      0.02160,    0,    0,    0,    0,    0,    0,    0,    1,    0,    1,    1
     22,     21,  '1',      0.02090,      0.09700,      0.02460,    0,    0,    0,    0,    0,    0,    0,    1,    0,    1,    1
     23,     22,  '1',      0.03420,      0.15900,      0.04040,    0,    0,    0,    0,    0,    0,    0,    1,    0,    1,    1
     24,     23,  '1',      0.01350,      0.04920,      0.04980,    0,    0,    0,    0,    0,    0,    0,    1,    0,    1,    1
     25,     23,  '1',      0.01560,      0.08000,      0.08640,    0,    0,    0,    0,    0,    0,    0,    1,    0,    1,    1
     27,     25,  '1',      0.03180,      0.16300,      0.17640,    0,    0,    0,    0,    0,    0,    0,    1,    0,    1,    1
     28,     27,  '1',      0.01913,      0.08550,      0.02160,    0,    0,    0,    0,    0,    0,    0,    1,    0,    1,    1
     29,     28,  '1',      0.02370,      0.09430,      0.02380,    0,    0,    0,    0,    0,    0,    0,    1,    0,    1,    1
     30,      8,  '1',      0.00431,      0.05040,      0.51400,    0,    0,    0,    0,    0,    0,    0,    1,    0,    1,    1
     30,     26,  '1',      0.00799,      0.08600,      0.90800,    0,    0,    0,    0,    0,    0,    0,    1,    0,    1,    1
     31,     17,  '1',      0.04740,      0.15630,      0.03990,    0,    0,    0,    0,    0,    0,    0,    1,    0,    1,    1
     31,     29,  '1',      0.01080,      0.03310,      0.00830,    0,    0,    0,    0,    0,    0,    0,    1,    0,    1,    1
     32,     23,  '1',      0.03170,      0.11530,      0.11730,    0,    0,    0,    0,    0,    0,    0,    1,    0,    1,    1
     32,     31,  '1',      0.02980,      0.09850,      0.02510,    0,    0,    0,    0,    0,    0,    0,    1,    0,    1,    1
     32,     27,  '1',      0.02290,      0.07550,      0.01926,    0,    0,    0,    0,    0,    0,    0,    1,    0,    1,    1
     33,     15,  '1',      0.03800,      0.12440,      0.03194,    0,    0,    0,    0,    0,    0,    0,    1,    0,    1,    1
     34,     19,  '1',      0.07520,      0.24700,      0.06320,    0,    0,    0,    0,    0,    0,    0,    1,    0,    1,    1
     36,     35,  '1',      0.00224,      0.01020,      0.00268,    0,    0,    0,    0,    0,    0,    0,    1,    0,    1,    1
     37,     35,  '1',      0.01100,      0.04970,      0.01318,    0,    0,    0,    0,    0,    0,    0,    1,    0,    1,    1
     37,     33,  '1',      0.04150,      0.14200,      0.03660,    0,    0,    0,    0,    0,    0,    0,    1,    0,    1,    1
     36,     34,  '1',      0.00871,      0.02680,      0.00568,    0,    0,    0,    0,    0,    0,    0,    1,    0,    1,    1
     37,     34,  '1',      0.00256,      0.00940,      0.00984,    0,    0,    0,    0,    0,    0,    0,    1,    0,    1,    1
     39,     37,  '1',      0.03210,      0.10600,      0.02700,    0,    0,    0,    0,    0,    0,    0,    1,    0,    1,    1
     40,     37,  '1',      0.05930,      0.16800,      0.04200,    0,    0,    0,    0,    0,    0,    0,    1,    0,    1,    1
     38,     30,  '1',      0.00464,      0.05400,      0.42200,    0,    0,    0,    0,    0,    0,    0,    1,    0,    1,    1
     40,     39,  '1',      0.01840,      0.06050,      0.01552,    0,    0,    0,    0,    0,    0,    0,    1,    0,    1,    1
     41,     40,  '1',      0.01450,      0.04870,      0.01222,    0,    0,    0,    0,    0,    0,    0,    1,    0,    1,    1
     42,     40,  '1',      0.05550,      0.18300,      0.04660,    0,    0,    0,    0,    0,    0,    0,    1,    0,    1,    1
     42,     41,  '1',      0.04100,      0.13500,      0.03440,    0,    0,    0,    0,    0,    0,    0,    1,    0,    1,    1
     44,     43,  '1',      0.06080,      0.24540,      0.06068,    0,    0,    0,    0,    0,    0,    0,    1,    0,    1,    1
     43,     34,  '1',      0.04130,      0.16810,      0.04226,    0,    0,    0,    0,    0,    0,    0,    1,    0,    1,    1
     45,     44,  '1',      0.02240,      0.09010,      0.02240,    0,    0,    0,    0,    0,    0,    0,    1,    0,    1,    1
     46,     45,  '1',      0.04000,      0.13560,      0.03320,    0,    0,    0,    0,    0,    0,    0,    1,    0,    1,    1
     47,     46,  '1',      0.03800,      0.12700,      0.03160,    0,    0,    0,    0,    0,    0,    0,    1,    0,    1,    1
     48,     46,  '1',      0.06010,      0.18900,      0.04720,    0,    0,    0,    0,    0,    0,    0,    1,    0,    1,    1
     49,     47,  '1',      0.01910,      0.06250,      0.01604,    0,    0,    0,    0,    0,    0,    0,    1,    0,    1,    1
     49,     42,  '1',      0.07150,      0.32300,      0.08600,    0,    0,    0,    0,    0,    0,    0,    1,    0,    1,    1
     49,     42,  '2',      0.07150,      0.32300,      0.08600,    0,    0,    0,    0,    0,    0,    0,    1,    0,    1,    1
     49,     45,  '1',      0.06840,      0.18600,      0.04440,    0,    0,    0,    0,    0,    0,    0,    1,    0,    1,    1
     49,     48,  '1',      0.01790,      0.05050,      0.01258,    0,    0,    0,    0,    0,    0,    0,    1,    0,    1,    1
     50,     49,  '1',      0.02670,      0.07520,      0.01874,    0,    0,    0,    0,    0,    0,    0,    1,    0,    1,    1
     51,     49,  '1',      0.04860,      0.13700,      0.03420,    0,    0,    0,    0,    0,    0,    0,    1,    0,    1,    1
     52,     51,  '1',      0.02030,      0.05880,      0.01396,    0,    0,    0,    0,    0,    0,    0,    1,    0,    1,    1
     53,     52,  '1',      0.04050,      0.16350,      0.04058,    0,    0,    0,    0,    0,    0,    0,    1,    0,    1,    1
     54,     53,  '1',      0.02630,      0.12200,      0.03100,    0,    0,    0,    0,    0,    0,    0,    1,    0,    1,    1
     54,     49,  '1',      0.07300,      0.28900,      0.07380,    0,    0,    0,    0,    0,    0,    0,    1,    0,    1,    1
     54,     49,  '2',      0.08690,      0.29100,      0.07300,    0,    0,    0,    0,    0,    0,    0,    1,    0,    1,    1
     55,     54,  '1',      0.01690,      0.07070,      0.02020,    0,    0,    0,    0,    0,    0,    0,    1,    0,    1,    1
     56,     54,  '1',      0.00275,      0.00955,      0.00732,    0,    0,    0,    0,    0,    0,    0,    1,    0,    1,    1
     56,     55,  '1',      0.00488,      0.01510,      0.00374,    0,    0,    0,    0,    0,    0,    0,    1,    0,    1,    1
     57,     56,  '1',      0.03430,      0.09660,      0.02420,    0,    0,    0,    0,    0,    0,    0,    1,    0,    1,    1
     57,     50,  '1',      0.04740,      0.13400,      0.03320,    0,    0,    0,    0,    0,    0,    0,    1,    0,    1,    1
     58,     56,  '1',      0.03430,      0.09660,      0.02420,    0,    0,    0,    0,    0,    0,    0,    1,    0,    1,    1
     58,     51,  '1',      0.02550,      0.07190,      0.01788,    0,    0,    0,    0,    0,    0,    0,    1,    0,    1,    1
     59,     54,  '1',      0.05030,      0.22930,      0.05980,    0,    0,    0,    0,    0,    0,    0,    1,    0,    1,    1
     59,     56,  '1',      0.08250,      0.25100,      0.05690,    0,    0,    0,    0,    0,    0,    0,    1,    0,    1,    1
     59,     56,  '2',      0.08030,      0.23900,      0.05360,    0,    0,    0,    0,    0,    0,    0,    1,    0,    1,    1
     59,     55,  '1',      0.04739,      0.21580,      0.05646,    0,    0,    0,    0,    0,    0,    0,    1,    0,    1,    1
     60,     59,  '1',      0.03170,      0.14500,      0.03760,    0,    0,    0,    0,    0,    0,    0,    1,    0,    1,    1
     61,     59,  '1',      0.03280,      0.15000,      0.03880,    0,    0,    0,    0,    0,    0,    0,    1,    0,    1,    1
     61,     60,  '1',      0.00264,      0.01350,      0.01456,    0,    0,    0,    0,    0,    0,    0,    1,    0,    1,    1
     62,     60,  '1',      0.01230,      0.05610,      0.01468,    0,    0,    0,    0,    0,    0,    0,    1,    0,    1,    1
     62,     61,  '1',      0.00824,      0.03760,      0.00980,    0,    0,    0,    0,    0,    0,    0,    1,    0,    1,    1
     64,     63,  '1',      0.00172,      0.02000,      0.21600,    0,    0,    0,    0,    0,    0,    0,    1,    0,    1,    1
     65,     38,  '1',      0.00901,      0.09860,      1.04600,    0,    0,    0,    0,    0,    0,    0,    1,    0,    1,    1
     65,     64,  '1',      0.00269,      0.03020,      0.38000,    0,    0,    0,    0,    0,    0,    0,    1,    0,    1,    1
     66,     49,  '1',      0.01800,      0.09190,      0.02480,    0,    0,    0,    0,    0,    0,    0,    1,    0,    1,    1
     66,     49,  '2',      0.01800,      0.09190,      0.02480,    0,    0,    0,    0,    0,    0,    0,    1,    0,    1,    1
     66,     62,  '1',      0.04820,      0.21800,      0.05780,    0,    0,    0,    0,    0,    0,    0,    1,    0,    1,    1
     67,     62,  '1',      0.02580,      0.11700,      0.03100,    0,    0,    0,    0,    0,    0,    0,    1,    0,    1,    1
     67,     66,  '1',      0.02240,      0.10150,      0.02682,    0,    0,    0,    0,    0,    0,    0,    1,    0,    1,    1
     68,     65,  '1',      0.00138,      0.01600,      0.63800,    0,    0,    0,    0,    0,    0,    0,    1,    0,    1,    1
     69,     47,  '1',      0.08440,      0.27780,      0.07092,    0,    0,    0,    0,    0,    0,    0,    1,    0,    1,    1
     69,     49,  '1',      0.09850,      0.32400,      0.08280,    0,    0,    0,    0,    0,    0,    0,    1,    0,    1,    1
     70,     69,  '1',      0.03000,      0.12700,      0.12200,    0,    0,    0,    0,    0,    0,    0,    1,    0,    1,    1
     70,     24,  '1',      0.00221,      0.41150,      0.10198,    0,    0,    0,    0,    0,    0,    0,    1,    0,    1,    1
     71,     70,  '1',      0.00882,      0.03550,      0.00878,    0,    0,    0,    0,    0,    0,    0,    1,    0,    1,    1
     72,     24,  '1',      0.04880,      0.19600,      0.04880,    0,    0,    0,    0,    0,    0,    0,    1,    0,    1,    1
     72,     71,  '1',      0.04460,      0.18000,      0.04444,    0,    0,    0,    0,    0,    0,    0,    1,    0,    1,    1
     73,     71,  '1',      0.00866,      0.04540,      0.01178,    0,    0,    0,    0,    0,    0,    0,    1,    0,    1,    1
     74,     70,  '1',      0.04010,      0.13230,      0.03368,    0,    0,    0,    0,    0,    0,    0,    1,    0,    1,    1
     75,     70,  '1',      0.04280,      0.14100,      0.03600,    0,    0,    0,    0,    0,    0,    0,    1,    0,    1,    1
     75,     69,  '1',      0.04050,      0.12200,      0.12400,    0,    0,    0,    0,    0,    0,    0,    1,    0,    1,    1
     75,     74,  '1',      0.01230,      0.04060,      0.01034,    0,    0,    0,    0,    0,    0,    0,    1,    0,    1,    1
     77,     76,  '1',      0.04440,      0.14800,      0.03680,    0,    0,    0,    0,    0,    0,    0,    1,    0,    1,    1
     77,     69,  '1',      0.03090,      0.10100,      0.10380,    0,    0,    0,    0,    0,    0,    0,    1,    0,    1,    1
     77,     75,  '1',      0.06010,      0.19990,      0.04978,    0,    0,    0,    0,    0,    0,    0,    1,    0,    1,    1
     78,     77,  '1',      0.00376,      0.01240,      0.01264,    0,    0,    0,    0,    0,    0,    0,    1,    0,    1,    1
     79,     78,  '1',      0.00546,      0.02440,      0.00648,    0,    0,    0,    0,    0,    0,    0,    1,    0,    1,    1
     80,     77,  '1',      0.01700,      0.04850,      0.04720,    0,    0,    0,    0,    0,    0,    0,    1,    0,    1,    1
     80,     77,  '2',      0.02940,      0.10500,      0.02280,    0,    0,    0,    0,    0,    0,    0,    1,    0,    1,    1
     80,     79,  '1',      0.01560,      0.07040,      0.01870,    0,    0,    0,    0,    0,    0,    0,    1,    0,    1,    1
     81,     68,  '1',      0.00175,      0.02020,      0.80800,    0,    0,    0,    0,    0,    0,    0,    1,    0,    1,    1
     82,     77,  '1',      0.02980,      0.08530,      0.08174,    0,    0,    0,    0,    0,    0,    0,    1,    0,    1,    1
     83,     82,  '1',      0.01120,      0.03665,      0.03796,    0,    0,    0,    0,    0,    0,    0,    1,    0,    1,    1
     84,     83,  '1',      0.06250,      0.13200,      0.02580,    0,    0,    0,    0,    0,    0,    0,    1,    0,    1,    1
     85,     83,  '1',      0.04300,      0.14800,      0.03480,    0,    0,    0,    0,    0,    0,    0,    1,    0,    1,    1
     85,     84,  '1',      0.03020,      0.06410,      0.01234,    0,    0,    0,    0,    0,    0,    0,    1,    0,    1,    1
     86,     85,  '1',      0.03500,      0.12300,      0.02760,    0,    0,    0,    0,    0,    0,    0,    1,    0,    1,    1
     87,     86,  '1',      0.02828,      0.20740,      0.04450,    0,    0,    0,    0,    0,    0,    0,    1,    0,    1,    1
     88,     85,  '1',      0.02000,      0.10200,      0.02760,    0,    0,    0,    0,    0,    0,    0,    1,    0,    1,    1
     89,     85,  '1',      0.02390,      0.17300,      0.04700,    0,    0,    0,    0,    0,    0,    0,    1,    0,    1,    1
     89,     88,  '1',      0.01390,      0.07120,      0.01934,    0,    0,    0,    0,    0,    0,    0,    1,    0,    1,    1
     90,     89,  '1',      0.05180,      0.18800,      0.05280,    0,    0,    0,    0,    0,    0,    0,    1,    0,    1,    1
     90,     89,  '2',      0.02380,      0.09970,      0.10600,    0,    0,    0,    0,    0,    0,    0,    1,    0,    1,    1
     91,     90,  '1',      0.02540,      0.08360,      0.02140,    0,    0,    0,    0,    0,    0,    0,    1,    0,    1,    1
     92,     89,  '1',      0.00990,      0.05050,      0.05480,    0,    0,    0,    0,    0,    0,    0,    1,    0,    1,    1
     92,     89,  '2',      0.03930,      0.15810,      0.04140,    0,    0,    0,    0,    0,    0,    0,    1,    0,    1,    1
     92,     91,  '1',      0.03870,      0.12720,      0.03268,    0,    0,    0,    0,    0,    0,    0,    1,    0,    1,    1
     93,     92,  '1',      0.02580,      0.08480,      0.02180,    0,    0,    0,    0,    0,    0,    0,    1,    0,    1,    1
     94,     92,  '1',      0.04810,      0.15800,      0.04060,    0,    0,    0,    0,    0,    0,    0,    1,    0,    1,    1
     94,     93,  '1',      0.02230,      0.07320,      0.01876,    0,    0,    0,    0,    0,    0,    0,    1,    0,    1,    1
     95,     94,  '1',      0.01320,      0.04340,      0.01110,    0,    0,    0,    0,    0,    0,    0,    1,    0,    1,    1
     96,     80,  '1',      0.03560,      0.18200,      0.04940,    0,    0,    0,    0,    0,    0,    0,    1,    0,    1,    1
     96,     82,  '1',      0.01620,      0.05300,      0.05440,    0,    0,    0,    0,    0,    0,    0,    1,    0,    1,    1
     96,     94,  '1',      0.02690,      0.08690,      0.02300,    0,    0,    0,    0,    0,    0,    0,    1,    0,    1,    1
     97,     80,  '1',      0.01830,      0.09340,      0.02540,    0,    0,    0,    0,    0,    0,    0,    1,    0,    1,    1
     98,     80,  '1',      0.02380,      0.10800,      0.02860,    0,    0,    0,    0,    0,    0,    0,    1,    0,    1,    1
     99,     80,  '1',      0.04540,      0.20600,      0.05460,    0,    0,    0,    0,    0,    0,    0,    1,    0,    1,    1
    100,     92,  '1',      0.06480,      0.29500,      0.04720,    0,    0,    0,    0,    0,    0,    0,    1,    0,    1,    1
    100,     94,  '1',      0.01780,      0.05800,      0.06040,    0,    0,    0,    0,    0,    0,    0,    1,    0,    1,    1
     96,     95,  '1',      0.01710,      0.05470,      0.01474,    0,    0,    0,    0,    0,    0,    0,    1,    0,    1,    1
     97,     96,  '1',      0.01730,      0.08850,      0.02400,    0,    0,    0,    0,    0,    0,    0,    1,    0,    1,    1
    100,     98,  '1',      0.03970,      0.17900,      0.04760,    0,    0,    0,    0,    0,    0,    0,    1,    0,    1,    1
    100,     99,  '1',      0.01800,      0.08130,      0.02160,    0,    0,    0,    0,    0,    0,    0,    1,    0,    1,    1
    101,    100,  '1',      0.02770,      0.12620,      0.03280,    0,    0,    0,    0,    0,    0,    0,    1,    0,    1,    1
    102,     92,  '1',      0.01230,      0.05590,      0.01464,    0,    0,    0,    0,    0,    0,    0,    1,    0,    1,    1
    102,    101,  '1',      0.02460,      0.11200,      0.02940,    0,    0,    0,    0,    0,    0,    0,    1,    0,    1,    1
    103,    100,  '1',      0.01600,      0.05250,      0.05360,    0,    0,    0,    0,    0,    0,    0,    1,    0,    1,    1
    104,    100,  '1',      0.04510,      0.20400,      0.05410,    0,    0,    0,    0,    0,    0,    0,    1,    0,    1,    1
    104,    103,  '1',      0.04660,      0.15840,      0.04070,    0,    0,    0,    0,    0,    0,    0,    1,    0,    1,    1
    105,    103,  '1',      0.05350,      0.16250,      0.04080,    0,    0,    0,    0,    0,    0,    0,    1,    0,    1,    1
    106,    100,  '1',      0.06050,      0.22900,      0.06200,    0,    0,    0,    0,    0,    0,    0,    1,    0,    1,    1
    105,    104,  '1',      0.00994,      0.03780,      0.00986,    0,    0,    0,    0,    0,    0,    0,    1,    0,    1,    1
    106,    105,  '1',      0.01400,      0.05470,      0.01434,    0,    0,    0,    0,    0,    0,    0,    1,    0,    1,    1
    107,    105,  '1',      0.05300,      0.18300,      0.04720,    0,    0,    0,    0,    0,    0,    0,    1,    0,    1,    1
    108,    105,  '1',      0.02610,      0.07030,      0.01844,    0,    0,    0,    0,    0,    0,    0,    1,    0,    1,    1
    107,    106,  '1',      0.05300,      0.18300,      0.04720,    0,    0,    0,    0,    0,    0,    0,    1,    0,    1,    1
    109,    108,  '1',      0.01050,      0.02880,      0.00760,    0,    0,    0,    0,    0,    0,    0,    1,    0,    1,    1
    110,    103,  '1',      0.03906,      0.18130,      0.04610,    0,    0,    0,    0,    0,    0,    0,    1,    0,    1,    1
    110,    109,  '1',      0.02780,      0.07620,      0.02020,    0,    0,    0,    0,    0,    0,    0,    1,    0,    1,    1
    111,    110,  '1',      0.02200,      0.07550,      0.02000,    0,    0,    0,    0,    0,    0,    0,    1,    0,    1,    1
    112,    110,  '1',      0.02470,      0.06400,      0.06200,    0,    0,    0,    0,    0,    0,    0,    1,    0,    1,    1
    113,     17,  '1',      0.00913,      0.03010,      0.00768,    0,    0,    0,    0,    0,    0,    0,    1,    0,    1,    1
    113,     32,  '1',      0.06150,      0.20300,      0.05180,    0,    0,    0,    0,    0,    0,    0,    1,    0,    1,    1
    114,     32,  '1',      0.01350,      0.06120,      0.01628,    0,    0,    0,    0,    0,    0,    0,    1,    0,    1,    1
    115,     27,  '1',      0.01640,      0.07410,      0.01972,    0,    0,    0,    0,    0,    0,    0,    1,    0,    1,    1
    115,    114,  '1',      0.00230,      0.01040,      0.00276,    0,    0,    0,    0,    0,    0,    0,    1,    0,    1,    1
    116,     68,  '1',      0.00034,      0.00405,      0.16400,    0,    0,    0,    0,    0,    0,    0,    1,    0,    1,    1
    117,     12,  '1',      0.03290,      0.14000,      0.03580,    0,    0,    0,    0,    0,    0,    0,    1,    0,    1,    1
    118,     75,  '1',      0.01450,      0.04810,      0.01198,    0,    0,    0,    0,    0,    0,    0,    1,    0,    1,    1
    118,     76,  '1',      0.01640,      0.05440,      0.01356,    0,    0,    0,    0,    0,    0,    0,    1,    0,    1,    1
0 / END OF BRANCH DATA, BEGIN TRANSFORMER DATA
8,    5,      0,'1',1,1,1,   0,    0,    2,'        ',1,    1,    1
    0,        0.0267,        100
    0.985,    0,             0,    0,    0,    0,    0,    0,    1.1,    0.9,    1.1,    0.9,    33,    0,    0,    0
    1,        0
26,    25,    0,'1',1,1,1,   0,    0,    2,'        ',1,    1,    1
    0,        0.0382,        100
    0.960,    0,             0,    0,    0,    0,    0,    0,    1.1,    0.9,    1.1,    0.9,    33,    0,    0,    0
    1,        0
30,    17,    0,'1',1,1,1,   0,    0,    2,'        ',1,    1,    1
    0,        0.0388,        100
    0.960,    0,             0,    0,    0,    0,    0,    0,    1.1,    0.9,    1.1,    0.9,    33,    0,    0,    0
    1,        0
38,    37,    0,'1',1,1,1,   0,    0,    2,'        ',1,    1,    1
    0,        0.0375,        100
    0.935,    0,             0,    0,    0,    0,    0,    0,    1.1,    0.9,    1.1,    0.9,    33,    0,    0,    0
    1,        0
63,    59,    0,'1',1,1,1,   0,    0,    2,'        ',1,    1,    1
    0,        0.0386,        100
    0.960,    0,    0,       0,    0,    0,    0,    0,    1.1,    0.9,    1.1,    0.9,    33,    0,    0,    0
    1,        0
64,    61,    0,'1',1,1,1,   0,    0,    2,'        ',1,    1,    1
    0,        0.0268,        100
    0.985,    0,    0,       0,    0,    0,    0,    0,    1.1,    0.9,    1.1,    0.9,    33,    0,    0,    0
    1,        0
65,    66,    0,'1',1,1,1,   0,    0,    2,'        ',1,    1,    1
    0,        0.037,         100
    0.935,    0,             0,    0,    0,    0,    0,    0,    1.1,    0.9,    1.1,    0.9,    33,    0,    0,    0
    1,        0
68,    69,    0,'1',1,1,1,   0,    0,    2,'        ',1,    1,    1
    0,        0.037,         100
    0.935,    0,             0,    0,    0,    0,    0,    0,    1.1,    0.9,    1.1,    0.9,    33,    0,    0,    0
    1,        0
81,    80,    0,'1',1,1,1,   0,    0,    2,'        ',1,    1,    1
    0,        0.037,         100
    0.935,    0,             0,    0,    0,    0,    0,    0,    1.1,    0.9,    1.1,    0.9,    33,    0,    0,    0
    1,        0
0 / END OF TRANSFORMER DATA, BEGIN AREA DATA
0 / END OF TRANSFORMER DATA, BEGIN AREA DATA
0 / END OF AREA DATA, BEGIN TWO-TERMINAL DC DATA
0 / END OF TWO-TERMINAL DC DATA, BEGIN VSC DC LINE DATA
0 / END OF VSC DC LINE DATA, BEGIN SWITCHED SHUNT DATA
0 / END OF SWITCHED SHUNT DATA, BEGIN IMPEDANCE CORRECTION DATA
0 / END OF IMPEDANCE CORRECTION DATA, BEGIN MULTI-TERMINAL DC DATA
0 / END OF MULTI-TERMINAL DC DATA, BEGIN MULTI-SECTION LINE DATA
0 / END OF MULTI-SECTION LINE DATA, BEGIN ZONE DATA
0 / END OF ZONE DATA, BEGIN INTER-AREA TRANSFER DATA
0 / END OF INTER-AREA TRANSFER DATA, BEGIN OWNER DATA
0 / END OF OWNER DATA, BEGIN FACTS DEVICE DATA
0 / END OF FACTS DEVICE DATA
